Circuit: * D:\UTN D\04 - Teoria de Circuitos 2\TC2_JuanRonchetti_2023\TS_3\Circuito_Girador.asc

Ignoring empty pin current: Ix(u1:1)
Ignoring empty pin current: Ix(u1:2)
Ignoring empty pin current: Ix(u2:1)
Ignoring empty pin current: Ix(u2:2)

Date: Fri May 05 12:25:56 2023
Total elapsed time: 0.028 seconds.

tnom = 27
temp = 27
method = trap
totiter = 0
traniter = 0
tranpoints = 0
accept = 0
rejected = 0
matrix size = 7
fillins = 0
solver = Normal

