Circuit: * D:\UTN D\04 - Teoria de Circuitos 2\TC2_JuanRonchetti_2023\Parcial_1\Circuito_1b.asc

Ignoring empty pin current: Ix(u1:1)
Ignoring empty pin current: Ix(u1:2)

Date: Mon Jul 10 22:29:58 2023
Total elapsed time: 0.024 seconds.

tnom = 27
temp = 27
method = trap
totiter = 0
traniter = 0
tranpoints = 0
accept = 0
rejected = 0
matrix size = 6
fillins = 1
solver = Normal

