Circuit: * D:\UTN D\04 - Teoria de Circuitos 2\TC2_JuanRonchetti_2023\TS_5\Circuito_Seroe.asc

Ignoring empty pin current: Ix(u1:1)
Ignoring empty pin current: Ix(u1:2)
Ignoring empty pin current: Ix(u2:1)
Ignoring empty pin current: Ix(u2:2)
Ignoring empty pin current: Ix(u3:1)
Ignoring empty pin current: Ix(u3:2)

Date: Sun Jun 18 16:19:58 2023
Total elapsed time: 0.033 seconds.

tnom = 27
temp = 27
method = trap
totiter = 0
traniter = 0
tranpoints = 0
accept = 0
rejected = 0
matrix size = 14
fillins = 4
solver = Normal

