Circuit: * D:\UTN D\04 - Teoria de Circuitos 2\TC2_JuanRonchetti_2023\TPLAB_2\Sallen-Key.asc

Ignoring empty pin current: Ix(u1:1)
Ignoring empty pin current: Ix(u1:2)

Date: Thu Nov 30 13:40:27 2023
Total elapsed time: 0.025 seconds.

tnom = 27
temp = 27
method = trap
totiter = 0
traniter = 0
tranpoints = 0
accept = 0
rejected = 0
matrix size = 5
fillins = 0
solver = Normal

