Circuit: * D:\UTN D\Teoria de Circuitos 2\TC2_JuanRonchetti_2023\TS_2\CircuitoSpice.asc

Ignoring empty pin current: Ix(u1:1)
Ignoring empty pin current: Ix(u1:2)
Ignoring empty pin current: Ix(u2:1)
Ignoring empty pin current: Ix(u2:2)
Ignoring empty pin current: Ix(u3:1)
Ignoring empty pin current: Ix(u3:2)

Date: Sun Apr 16 19:58:13 2023
Total elapsed time: 0.019 seconds.

tnom = 27
temp = 27
method = trap
totiter = 0
traniter = 0
tranpoints = 0
accept = 0
rejected = 0
matrix size = 8
fillins = 6
solver = Normal

